pcf
* control data
             restart          estimation
        15        20         3         0         1         0
         3         1              single               point         1         0         0          noobsreref
   1.000000E-01  -4.000000E+00   3.000000E-01   3.000000E-02        10       999          lamforgive        noderforgive
   5.000000E+00   5.000000E+00   1.000000E-03         0         0
   1.000000E-01         1   1.100000E+00               noaui          nosenreuse        noboundscale
        -1   5.000000E-03         4         4   5.000000E-03         4   0.000000E+00         1  -1.000000E+00
         1         1         1         0             jcosave          verboserec          jcosaveitn          reisaveitn          parsaveitn        noparsaverun
* singular value decomposition
         1
         1    1.000000E-03
0
* parameter groups
 k                       relative              1.0000000000E-02       0.0  switch                2.0000000000E+00       parabolic              1.0000000000E-05       5.0000000000E-01       smaller              
 ghb                     relative              1.0000000000E-02       0.0  switch                2.0000000000E+00       parabolic              1.0000000000E-05       5.0000000000E-01       smaller              
 wel                     relative              1.0000000000E-02       0.0  switch                2.0000000000E+00       parabolic              1.0000000000E-05       5.0000000000E-01       smaller              
* parameter data
 cond                   log                    factor                1.0000000000E+01      1.0000000000E-01      1.0000000000E+02       ghb                   1.0000000000E+00      0.0000000000E+00       1          
 stage_1                log                    factor                1.0000000000E+00      1.0000000000E-01      3.0000000000E+00       ghb                   1.0000000000E+00      0.0000000000E+00       1          
 stage_2                log                    factor                5.0000000000E-01      1.0000000000E-01      3.0000000000E+00       ghb                   1.0000000000E+00      0.0000000000E+00       1          
 k_01                   log                    factor                2.5000000000E+00      2.5000000000E-01      2.5000000000E+01       k                     1.0000000000E+00      0.0000000000E+00       1          
 k_02                   log                    factor                2.5000000000E+00      2.5000000000E-01      2.5000000000E+01       k                     1.0000000000E+00      0.0000000000E+00       1          
 k_03                   log                    factor                2.5000000000E+00      2.5000000000E-01      2.5000000000E+01       k                     1.0000000000E+00      0.0000000000E+00       1          
 k_04                   log                    factor                2.5000000000E+00      2.5000000000E-01      2.5000000000E+01       k                     1.0000000000E+00      0.0000000000E+00       1          
 k_05                   log                    factor                2.5000000000E+00      2.5000000000E-01      2.5000000000E+01       k                     1.0000000000E+00      0.0000000000E+00       1          
 k_06                   log                    factor                2.5000000000E+00      2.5000000000E-01      2.5000000000E+01       k                     1.0000000000E+00      0.0000000000E+00       1          
 k_07                   log                    factor                2.5000000000E+00      2.5000000000E-01      2.5000000000E+01       k                     1.0000000000E+00      0.0000000000E+00       1          
 k_08                   log                    factor                2.5000000000E+00      2.5000000000E-01      2.5000000000E+01       k                     1.0000000000E+00      0.0000000000E+00       1          
 k_09                   log                    factor                2.5000000000E+00      2.5000000000E-01      2.5000000000E+01       k                     1.0000000000E+00      0.0000000000E+00       1          
 k_10                   log                    factor                2.5000000000E+00      2.5000000000E-01      2.5000000000E+01       k                     1.0000000000E+00      0.0000000000E+00       1          
 wel_1                  log                    factor                5.0000000000E-01      2.5000000000E-01      7.5000000000E-01       wel                   1.0000000000E+00      0.0000000000E+00       1          
 wel_2                  log                    factor                1.0000000000E+00      5.0000000000E-01      1.5000000000E+00       wel                   1.0000000000E+00      0.0000000000E+00       1          
* observation groups
head                 
* observation data
 h01_01                1.0000000000E+00      0.0000000000E+00       head                 
 h01_02                1.2820000000E+00      0.0000000000E+00       head                 
 h01_03                1.6970000000E+00      0.0000000000E+00       head                 
 h01_04                2.8750000000E+00      1.0000000000E+01       head                 
 h01_05                5.4000000000E+00      0.0000000000E+00       head                 
 h01_06                6.9570000000E+00      1.0000000000E+01       head                 
 h01_07                7.0610000000E+00      0.0000000000E+00       head                 
 h01_08                7.3880000000E+00      0.0000000000E+00       head                 
 h01_09                7.6850000000E+00      0.0000000000E+00       head                 
 h01_10                8.1040000000E+00      0.0000000000E+00       head                 
 h02_01                1.0000000000E+00      0.0000000000E+00       head                 
 h02_02                1.4910000000E+00      0.0000000000E+00       head                 
 h02_03                2.2140000000E+00      0.0000000000E+00       head                 
 h02_04                4.2660000000E+00      0.0000000000E+00       head                 
 h02_05                8.6640000000E+00      0.0000000000E+00       head                 
 h02_06                1.1375000000E+01      0.0000000000E+00       head                 
 h02_07                1.1557000000E+01      0.0000000000E+00       head                 
 h02_08                1.2125000000E+01      0.0000000000E+00       head                 
 h02_09                1.2644000000E+01      0.0000000000E+00       head                 
 h02_10                1.3373000000E+01      0.0000000000E+00       head                 
* model command line
mfnwt xsec.nam
* model input/output
hk_Layer_1.ref.tpl hk_Layer_1.ref
xsec.wel.tpl xsec.wel
xsec.ghb.tpl xsec.ghb
xsec.hds.ins xsec.hds
