ptf ~
# Well file for MODFLOW, generated by Flopy.
         1         0
         1         0
        1         1        1   ~ stage_1   ~ ~ cond ~ 
         1         0
        1         1        1   ~ stage_2   ~ ~ cond ~
