# Well file for MODFLOW, generated by Flopy.
         1         0
         1         0
        1         1        1   1.00000000000 10.00000 
         1         0
        1         1        1   0.50000000000 10.00000
