# Basic package file for MODFLOW, generated by Flopy.
 FREE
OPEN/CLOSE      ibound_Layer_1.ref               1    (10I10) -1  #ibound Layer 1                
        -999.99
CONSTANT   1.0               1  (FREE) -1  #strt Layer 1                  
