ptf ~
# Well file for MODFLOW, generated by Flopy.
         1         0
         1         0
        1         1        10  ~  wel_1   ~
         1         0
        1         1        10  ~  wel_2   ~
